
#======================================================================
# CRYSTAL DATA
#----------------------------------------------------------------------
data_VESTA_phase_1

_chemical_name_common                  'Ni2-CPDpy593(0)'
_cell_length_a                         13.6734(17)
_cell_length_b                         29.117(5)
_cell_length_c                         9.7438(18)
_cell_angle_alpha                      90.000000
_cell_angle_beta                       105.232(17)
_cell_angle_gamma                      90.000000
_cell_volume                           3743.003887
_space_group_name_H-M_alt              'P 21/c'
_space_group_IT_number                 14

loop_
_space_group_symop_operation_xyz
   'x, y, z'
   '-x, -y, -z'
   '-x, y+1/2, -z+1/2'
   'x, -y+1/2, z+1/2'

loop_
   _atom_site_label
   _atom_site_occupancy
   _atom_site_fract_x
   _atom_site_fract_y
   _atom_site_fract_z
   _atom_site_adp_type
   _atom_site_U_iso_or_equiv
   _atom_site_type_symbol
   Ni1        1.0     0.2871(7)    0.4899(5)    0.3032(11)  Uiso  0.144000 Ni
   N1         1.0     0.2478(8)    0.5512(5)    0.2232(13)  Uiso  0.144000 N
   N2         1.0     0.2238(8)    0.4569(7)    0.1223(13)  Uiso  0.144000 N
   N3         1.0     0.3326(8)    0.4268(5)    0.3866(14)  Uiso  0.144000 N
   N4         1.0     0.3567(7)    0.5208(7)    0.4908(13)  Uiso  0.144000 N
   N5         1.0     0.047(3)     0.5677(8)   -0.4554(18)  Uiso  0.144000 N
   N6         1.0     0.541(3)     0.3981(8)    1.0448(17)  Uiso  0.144000 N
   C1         1.0     0.2651(11)   0.5943(5)    0.2857(13)  Uiso  0.144000 C
   C2         1.0     0.2220(14)   0.6291(7)    0.1842(15)  Uiso  0.144000 C
   C3         1.0     0.1810(13)   0.6079(7)    0.0593(14)  Uiso  0.144000 C
   C4         1.0     0.1965(9)    0.5593(7)    0.0827(13)  Uiso  0.144000 C
   C5         1.0     0.1658(9)    0.5255(5)   -0.0229(13)  Uiso  0.144000 C
   C6         1.0     0.1756(9)    0.4786(7)   -0.0028(13)  Uiso  0.144000 C
   C7         1.0     0.1395(13)   0.4456(7)   -0.1132(13)  Uiso  0.144000 C
   C8         1.0     0.1644(13)   0.4039(7)   -0.0563(14)  Uiso  0.144000 C
   C9         1.0     0.2173(11)   0.4106(7)    0.0895(13)  Uiso  0.144000 C
   C10        1.0     0.2550(13)   0.3754(7)    0.1853(13)  Uiso  0.144000 C
   C11        1.0     0.3152(13)   0.3835(7)    0.3238(14)  Uiso  0.144000 C
   C12        1.0     0.3644(15)   0.3487(7)    0.4241(17)  Uiso  0.144000 C
   C13        1.0     0.4123(14)   0.3702(7)    0.5445(16)  Uiso  0.144000 C
   C14        1.0     0.3949(10)   0.4186(7)    0.5214(14)  Uiso  0.144000 C
   C15        1.0     0.4285(10)   0.4509(5)    0.6266(14)  Uiso  0.144000 C
   C16        1.0     0.4135(9)    0.4983(5)    0.6123(13)  Uiso  0.144000 C
   C17        1.0     0.4508(13)   0.5308(7)    0.7241(13)  Uiso  0.144000 C
   C18        1.0     0.4196(13)   0.5729(7)    0.6724(13)  Uiso  0.144000 C
   C19        1.0     0.3610(10)   0.5673(5)    0.5262(13)  Uiso  0.144000 C
   C20        1.0     0.3116(11)   0.6025(7)    0.4277(13)  Uiso  0.144000 C
   C21        1.0     0.1243(14)   0.5406(5)   -0.1734(14)  Uiso  0.144000 C
   C22        1.0     0.042(3)     0.5702(14)  -0.213(2)    Uiso  0.144000 C
   C23        1.0     0.007(4)     0.5826(14)  -0.353(2)    Uiso  0.144000 C
   C24        1.0     0.126(3)     0.5393(14)  -0.4170(17)  Uiso  0.144000 C
   C25        1.0     0.167(2)     0.5248(14)  -0.2792(17)  Uiso  0.144000 C
   C26        1.0     0.2221(13)   0.3275(7)    0.1406(14)  Uiso  0.144000 C
   C27        1.0     0.1190(13)   0.3159(7)    0.0942(13)  Uiso  0.144000 C
   C28        1.0     0.0874(14)   0.2688(7)    0.0589(13)  Uiso  0.144000 C
   C29        1.0     0.1669(18)   0.2362(7)    0.063(2)    Uiso  0.144000 C
   C30        1.0     0.2677(17)   0.2491(7)    0.109(3)    Uiso  0.144000 C
   C31        1.0     0.2930(13)   0.2930(7)    0.146(2)    Uiso  0.144000 C
   C32        1.0     0.4688(13)   0.4333(5)    0.7718(14)  Uiso  0.144000 C
   C33        1.0     0.411(2)     0.4028(13)   0.828(2)    Uiso  0.144000 C
   C34        1.0     0.450(3)     0.3864(13)   0.963(3)    Uiso  0.144000 C
   C35        1.0     0.596(2)     0.4277(11)   0.989(2)    Uiso  0.144000 C
   C36        1.0     0.563(2)     0.4458(11)   0.854(2)    Uiso  0.144000 C
   C37        1.0     0.2974(10)   0.6492(5)    0.4833(14)  Uiso  0.144000 C
   C38        1.0     0.2059(10)   0.6719(7)    0.4361(13)  Uiso  0.144000 C
   C39        1.0     0.1876(13)   0.7168(7)    0.4892(15)  Uiso  0.144000 C
   C40        1.0     0.2716(16)   0.7391(7)    0.586(2)    Uiso  0.144000 C
   C41        1.0     0.3630(14)   0.7167(7)    0.631(2)    Uiso  0.144000 C
   C42        1.0     0.3754(11)   0.6727(7)    0.579(2)    Uiso  0.144000 C
   C43        1.0    -0.0212(15)   0.2556(10)  -0.0026(13)  Uiso  0.144000 C
   C44        1.0    -0.051(2)     0.2560(18)  -0.1539(13)  Uiso  0.144000 C
   C45        1.0     0.0880(14)   0.7396(9)    0.4264(16)  Uiso  0.144000 C
   C46        1.0     0.064(4)     0.744(3)     0.2762(15)  Uiso  0.144000 C
   H1         1.0     0.2227(17)   0.6606(7)    0.201(2)    Uiso  0.144000 H
   H2         1.0     0.1485(15)   0.6221(7)   -0.0262(16)  Uiso  0.144000 H
   H3         1.0     0.1049(14)   0.4519(7)   -0.2069(14)  Uiso  0.144000 H
   H4         1.0     0.1499(17)   0.3759(7)   -0.1030(18)  Uiso  0.144000 H
   H5         1.0     0.363(2)     0.3172(7)    0.408(2)    Uiso  0.144000 H
   H6         1.0     0.4500(17)   0.3563(7)    0.628(2)    Uiso  0.144000 H
   H7         1.0     0.4900(14)   0.5241(7)    0.8154(15)  Uiso  0.144000 H
   H8         1.0     0.4331(16)   0.6002(7)    0.7218(16)  Uiso  0.144000 H
   H9         1.0     0.012(5)     0.582(2)    -0.145(3)    Uiso  0.144000 H
   H10        1.0    -0.047(6)     0.603(2)    -0.378(3)    Uiso  0.144000 H
   H11        1.0     0.155(4)     0.529(2)    -0.487(2)    Uiso  0.144000 H
   H12        1.0     0.222(3)     0.505(2)    -0.258(2)    Uiso  0.144000 H
   H13        1.0     0.0703(13)   0.3385(7)    0.0896(18)  Uiso  0.144000 H
   H14        1.0     0.151(2)     0.2059(7)    0.037(3)    Uiso  0.144000 H
   H15        1.0     0.318(2)     0.2273(8)    0.116(4)    Uiso  0.144000 H
   H16        1.0     0.3614(13)   0.3004(8)    0.179(3)    Uiso  0.144000 H
   H17        1.0     0.348(3)     0.394(2)     0.775(3)    Uiso  0.144000 H
   H18        1.0     0.411(4)     0.366(2)     1.000(4)    Uiso  0.144000 H
   H19        1.0     0.660(3)     0.4363(18)   1.044(3)    Uiso  0.144000 H
   H20        1.0     0.603(3)     0.4661(18)   0.820(3)    Uiso  0.144000 H
   H21        1.0     0.1532(13)   0.6573(7)    0.3709(15)  Uiso  0.144000 H
   H22        1.0     0.264(2)     0.7683(7)    0.619(2)    Uiso  0.144000 H
   H23        1.0     0.4167(17)   0.7307(7)    0.696(3)    Uiso  0.144000 H
   H24        1.0     0.4376(13)   0.6585(7)    0.611(2)    Uiso  0.144000 H
