
#======================================================================
# CRYSTAL DATA
#----------------------------------------------------------------------
data_VESTA_phase_1

_chemical_name_common                  'Ni2-CPDpy'
_cell_length_a                         13.040(10)
_cell_length_b                         25.897(14)
_cell_length_c                         10.824(8)
_cell_angle_alpha                      90.000000
_cell_angle_beta                       105.37(3)
_cell_angle_gamma                      90.000000
_cell_volume                           3524.499167
_space_group_name_H-M_alt              'P 21/n'
_space_group_IT_number                 14

loop_
_space_group_symop_operation_xyz
   'x, y, z'
   '-x, -y, -z'
   '-x+1/2, y+1/2, -z+1/2'
   'x+1/2, -y+1/2, z+1/2'

loop_
   _atom_site_label
   _atom_site_occupancy
   _atom_site_fract_x
   _atom_site_fract_y
   _atom_site_fract_z
   _atom_site_adp_type
   _atom_site_U_iso_or_equiv
   _atom_site_type_symbol
   Ni1        1.0     0.7381(15)   0.4786(8)    0.4784(15)  Uiso  0.086000 Ni
   N1         1.0     0.8387(16)   0.5058(9)    0.3822(18)  Uiso  0.086000 N
   N2         1.0     0.7480(16)   0.4133(8)    0.401(2)    Uiso  0.086000 N
   N3         1.0     0.6414(16)   0.4520(9)    0.5756(18)  Uiso  0.086000 N
   N4         1.0     0.7361(17)   0.5465(9)    0.5616(15)  Uiso  0.086000 N
   N5         1.0     0.976(4)     0.3698(10)  -0.057(3)    Uiso  0.086000 N
   N6         1.0     0.612(4)     0.5672(13)   1.096(3)    Uiso  0.086000 N
   C1         1.0     0.8687(17)   0.5569(8)    0.3788(17)  Uiso  0.086000 C
   C2         1.0     0.930(3)     0.5643(8)    0.288(3)    Uiso  0.086000 C
   C3         1.0     0.938(3)     0.5187(8)    0.236(3)    Uiso  0.086000 C
   C4         1.0     0.8833(17)   0.4816(8)    0.2946(18)  Uiso  0.086000 C
   C5         1.0     0.8702(17)   0.4296(7)    0.2631(18)  Uiso  0.086000 C
   C6         1.0     0.817(2)     0.3969(7)    0.330(3)    Uiso  0.086000 C
   C7         1.0     0.798(2)     0.3445(8)    0.297(3)    Uiso  0.086000 C
   C8         1.0     0.716(2)     0.3293(8)    0.342(3)    Uiso  0.086000 C
   C9         1.0     0.686(2)     0.3708(9)    0.409(3)    Uiso  0.086000 C
   C10        1.0     0.6104(15)   0.3672(9)    0.480(2)    Uiso  0.086000 C
   C11        1.0     0.6015(15)   0.4028(9)    0.5681(18)  Uiso  0.086000 C
   C12        1.0     0.549(2)     0.3939(11)   0.666(2)    Uiso  0.086000 C
   C13        1.0     0.558(3)     0.4368(13)   0.735(2)    Uiso  0.086000 C
   C14        1.0     0.6107(17)   0.4743(10)   0.6758(17)  Uiso  0.086000 C
   C15        1.0     0.6394(18)   0.5239(9)    0.7215(16)  Uiso  0.086000 C
   C16        1.0     0.692(2)     0.5586(9)    0.6619(17)  Uiso  0.086000 C
   C17        1.0     0.724(3)     0.6098(10)   0.707(2)    Uiso  0.086000 C
   C18        1.0     0.780(3)     0.6302(9)    0.630(3)    Uiso  0.086000 C
   C19        1.0     0.789(2)     0.5910(9)    0.5420(17)  Uiso  0.086000 C
   C20        1.0     0.8443(18)   0.5963(9)    0.4506(18)  Uiso  0.086000 C
   C21        1.0     0.907(2)     0.4090(7)    0.1522(18)  Uiso  0.086000 C
   C22        1.0     1.008(2)     0.3878(11)   0.169(3)    Uiso  0.086000 C
   C23        1.0     1.038(3)     0.3688(13)   0.064(4)    Uiso  0.086000 C
   C24        1.0     0.880(4)     0.3902(13)  -0.070(2)    Uiso  0.086000 C
   C25        1.0     0.841(3)     0.4104(11)   0.027(2)    Uiso  0.086000 C
   C26        1.0     0.5361(17)   0.3222(8)    0.462(2)    Uiso  0.086000 C
   C27        1.0     0.537(3)     0.2882(13)   0.562(3)    Uiso  0.086000 C
   C28        1.0     0.467(4)     0.2466(13)   0.542(4)    Uiso  0.086000 C
   C29        1.0     0.395(3)     0.2387(13)   0.424(4)    Uiso  0.086000 C
   C30        1.0     0.393(2)     0.2726(11)   0.324(3)    Uiso  0.086000 C
   C31        1.0     0.4629(16)   0.3143(9)    0.344(2)    Uiso  0.086000 C
   C32        1.0     0.321(2)     0.2661(15)   0.202(4)    Uiso  0.086000 C
   C33        1.0     0.264(2)     0.266(2)     0.095(4)    Uiso  0.086000 C
   C34        1.0     0.627(2)     0.5389(9)    0.850(2)    Uiso  0.086000 C
   C35        1.0     0.716(3)     0.542(2)     0.955(2)    Uiso  0.086000 C
   C36        1.0     0.705(4)     0.556(2)     1.073(2)    Uiso  0.086000 C
   C37        1.0     0.526(3)     0.564(2)     0.993(4)    Uiso  0.086000 C
   C38        1.0     0.529(2)     0.550(2)     0.870(3)    Uiso  0.086000 C
   C39        1.0     0.881(2)     0.6473(9)    0.423(2)    Uiso  0.086000 C
   C40        1.0     0.945(3)     0.6788(13)   0.516(2)    Uiso  0.086000 C
   C41        1.0     0.978(3)     0.7262(13)   0.482(3)    Uiso  0.086000 C
   C42        1.0     0.948(3)     0.7411(10)   0.355(3)    Uiso  0.086000 C
   C43        1.0     0.885(2)     0.7089(8)    0.262(3)    Uiso  0.086000 C
   C44        1.0     0.8527(18)   0.6622(8)    0.297(2)    Uiso  0.086000 C
   C45        1.0     0.852(3)     0.7213(9)    0.130(3)    Uiso  0.086000 C
   C46        1.0     0.813(4)     0.7274(15)   0.018(3)    Uiso  0.086000 C
   H1         1.0     0.959(3)     0.5952(9)    0.269(4)    Uiso  0.086000 H
   H2         1.0     0.973(4)     0.5117(10)   0.174(4)    Uiso  0.086000 H
   H3         1.0     0.831(3)     0.3249(9)    0.247(4)    Uiso  0.086000 H
   H4         1.0     0.686(3)     0.2964(10)   0.333(4)    Uiso  0.086000 H
   H5         1.0     0.517(3)     0.3635(13)   0.681(3)    Uiso  0.086000 H
   H6         1.0     0.529(4)     0.4423(15)   0.804(3)    Uiso  0.086000 H
   H7         1.0     0.704(4)     0.6270(13)   0.773(3)    Uiso  0.086000 H
   H8         1.0     0.808(3)     0.6634(10)   0.636(3)    Uiso  0.086000 H
   H9         1.0     1.054(2)     0.3859(16)   0.251(3)    Uiso  0.086000 H
   H10        1.0     1.106(3)     0.3547(17)   0.078(5)    Uiso  0.086000 H
   H11        1.0     0.835(5)     0.3914(18)  -0.153(2)    Uiso  0.086000 H
   H12        1.0     0.773(3)     0.4241(17)   0.009(3)    Uiso  0.086000 H
   H13        1.0     0.585(3)     0.2927(15)   0.641(3)    Uiso  0.086000 H
   H14        1.0     0.469(5)     0.2239(16)   0.609(4)    Uiso  0.086000 H
   H15        1.0     0.349(4)     0.2108(14)   0.413(5)    Uiso  0.086000 H
   H16        1.0     0.4611(18)   0.3367(11)   0.276(2)    Uiso  0.086000 H
   H17        1.0     0.783(3)     0.534(4)     0.945(3)    Uiso  0.086000 H
   H18        1.0     0.766(4)     0.558(4)     1.142(3)    Uiso  0.086000 H
   H19        1.0     0.460(4)     0.572(3)     1.007(5)    Uiso  0.086000 H
   H20        1.0     0.467(2)     0.549(3)     0.803(4)    Uiso  0.086000 H
   H21        1.0     0.965(3)     0.6683(14)   0.601(3)    Uiso  0.086000 H
   H22        1.0     1.021(4)     0.7477(16)   0.544(4)    Uiso  0.086000 H
   H23        1.0     0.971(4)     0.7731(11)   0.333(4)    Uiso  0.086000 H
   H24        1.0     0.810(2)     0.6410(9)    0.235(2)    Uiso  0.086000 H
