
#======================================================================
# CRYSTAL DATA
#----------------------------------------------------------------------
data_VESTA_phase_1

_chemical_name_common                  'Fe-P'
_cell_length_a                         11.6001(9)
_cell_length_b                         13.3221(13)
_cell_length_c                         13.2191(9)
_cell_angle_alpha                      90.000000
_cell_angle_beta                       114.4916(15)
_cell_angle_gamma                      90.000000
_cell_volume                           1859.037726
_space_group_name_H-M_alt              'P 21/c'
_space_group_IT_number                 14

loop_
_space_group_symop_operation_xyz
   'x, y, z'
   '-x, -y, -z'
   '-x, y+1/2, -z+1/2'
   'x, -y+1/2, z+1/2'

loop_
   _atom_site_label
   _atom_site_occupancy
   _atom_site_fract_x
   _atom_site_fract_y
   _atom_site_fract_z
   _atom_site_adp_type
   _atom_site_U_iso_or_equiv
   _atom_site_type_symbol
   Fe1        0.5000  0.5285(11)   0.4906(7)    0.4901(7)   Uiso  0.050000 Fe
   Cl1        0.5000  0.6762(14)   0.4440(8)    0.4306(10)  Uiso  0.033000 Cl
   N1         1.0     0.4996(14)   0.6346(7)    0.4322(11)  Uiso  0.060000 N
   N2         1.0     0.3707(14)   0.4567(10)   0.3500(8)   Uiso  0.060000 N
   C1         1.0     0.5748(14)   0.7154(8)    0.4871(10)  Uiso  0.060000 C
   C2         1.0     0.5570(14)   0.7963(9)    0.4105(13)  Uiso  0.060000 C
   C3         1.0     0.4687(14)   0.7658(10)   0.3089(11)  Uiso  0.060000 C
   C4         1.0     0.4337(11)   0.6654(8)    0.3242(10)  Uiso  0.060000 C
   C5         1.0     0.3471(11)   0.6082(9)    0.2404(11)  Uiso  0.060000 C
   C6         1.0     0.3174(13)   0.5114(9)    0.2549(10)  Uiso  0.060000 C
   C7         1.0     0.2210(13)   0.4534(13)   0.1682(10)  Uiso  0.060000 C
   C8         1.0     0.2172(13)   0.3628(11)   0.2112(13)  Uiso  0.060000 C
   C9         1.0     0.3118(13)   0.3643(9)    0.3257(9)   Uiso  0.060000 C
   C10        1.0     0.3383(16)   0.2821(9)    0.3997(11)  Uiso  0.060000 C
   C11        1.0     0.2782(11)   0.6570(9)    0.1322(11)  Uiso  0.095000 C
   C12        1.0     0.1798(13)   0.7207(10)   0.1218(10)  Uiso  0.095000 C
   C13        1.0     0.1090(13)   0.7652(9)    0.0199(10)  Uiso  0.095000 C
   C14        1.0     0.1414(13)   0.7492(11)  -0.0703(10)  Uiso  0.095000 C
   C15        1.0     0.2407(14)   0.6858(13)  -0.0588(11)  Uiso  0.095000 C
   C16        1.0     0.3083(13)   0.6404(10)   0.0428(14)  Uiso  0.095000 C
   C17        1.0     0.0058(17)   0.8283(11)   0.0094(13)  Uiso  0.365000 C
   C18        1.0    -0.079(2)     0.8808(13)   0.0035(18)  Uiso  0.365000 C
   C19        1.0     0.2644(14)   0.1868(10)   0.3574(11)  Uiso  0.144000 C
   C20        1.0     0.1577(17)   0.1654(13)   0.3759(13)  Uiso  0.144000 C
   C21        1.0     0.0893(14)   0.0791(14)   0.3318(14)  Uiso  0.144000 C
   C22        1.0     0.1283(18)   0.0141(10)   0.2728(14)  Uiso  0.144000 C
   C23        1.0     0.231(2)     0.0350(13)   0.2532(13)  Uiso  0.144000 C
   C24        1.0     0.3007(15)   0.1203(13)   0.2970(14)  Uiso  0.144000 C
   H1         1.0     0.597(2)     0.8582(15)   0.427(2)    Uiso  0.060000 H
   H2         1.0     0.437(2)     0.803(2)     0.2425(17)  Uiso  0.060000 H
   H3         1.0     0.171(2)     0.475(2)     0.0964(16)  Uiso  0.060000 H
   H4         1.0     0.164(2)     0.3097(17)   0.175(2)    Uiso  0.060000 H
   H5         1.0     0.158(2)     0.7296(15)   0.1814(18)  Uiso  0.095000 H
   H6         1.0     0.095(2)     0.7798(17)  -0.1385(16)  Uiso  0.095000 H
   H7         1.0     0.262(2)     0.675(2)    -0.119(2)    Uiso  0.095000 H
   H8         1.0     0.3759(18)   0.5992(15)   0.052(2)    Uiso  0.095000 H
   H9         1.0    -0.146(3)     0.9229(18)  -0.002(3)    Uiso  0.365000 H
   H10        1.0     0.131(3)     0.210(2)     0.416(2)    Uiso  0.144000 H
   H11        1.0     0.018(2)     0.064(2)     0.345(2)    Uiso  0.144000 H
   H12        1.0     0.083(3)    -0.0444(16)   0.245(2)    Uiso  0.144000 H
   H13        1.0     0.258(3)    -0.010(2)     0.213(2)    Uiso  0.144000 H
   H14        1.0     0.371(2)     0.134(2)     0.283(2)    Uiso  0.144000 H
