
#======================================================================
# CRYSTAL DATA
#----------------------------------------------------------------------
data_VESTA_phase_1

_chemical_name_common                  'Si16'
_cell_length_a                         15.467898
_cell_length_b                         11.600924
_cell_length_c                         45.000000
_cell_angle_alpha                      90.000000
_cell_angle_beta                       90.000000
_cell_angle_gamma                      90.000000
_cell_volume                           8074.885782
_space_group_name_H-M_alt              'P 1'
_space_group_IT_number                 1

loop_
_space_group_symop_operation_xyz
   'x, y, z'

loop_
   _atom_site_label
   _atom_site_occupancy
   _atom_site_fract_x
   _atom_site_fract_y
   _atom_site_fract_z
   _atom_site_adp_type
   _atom_site_U_iso_or_equiv
   _atom_site_type_symbol
   Si1        1.0     0.495604     0.000000     0.382378    Uiso  ? Si
   Si2        1.0     0.495604     0.333333     0.382378    Uiso  ? Si
   Si3        1.0     0.495604     0.666667     0.382378    Uiso  ? Si
   Si4        1.0     0.995604     0.000000     0.382378    Uiso  ? Si
   Si5        1.0     0.995604     0.333333     0.382378    Uiso  ? Si
   Si6        1.0     0.995604     0.666667     0.382378    Uiso  ? Si
   Si7        1.0     0.254156     0.000000     0.377018    Uiso  ? Si
   Si8        1.0     0.254156     0.333333     0.377018    Uiso  ? Si
   Si9        1.0     0.254156     0.666667     0.377018    Uiso  ? Si
   Si10       1.0     0.754156     0.000000     0.377018    Uiso  ? Si
   Si11       1.0     0.754156     0.333333     0.377018    Uiso  ? Si
   Si12       1.0     0.754156     0.666667     0.377018    Uiso  ? Si
   Si13       1.0     0.498712     0.166667     0.413482    Uiso  ? Si
   Si14       1.0     0.498712     0.500000     0.413482    Uiso  ? Si
   Si15       1.0     0.498712     0.833333     0.413482    Uiso  ? Si
   Si16       1.0     0.998712     0.166667     0.413482    Uiso  ? Si
   Si17       1.0     0.998712     0.500000     0.413482    Uiso  ? Si
   Si18       1.0     0.998712     0.833333     0.413482    Uiso  ? Si
   Si19       1.0     0.249081     0.166667     0.406786    Uiso  ? Si
   Si20       1.0     0.249081     0.500000     0.406786    Uiso  ? Si
   Si21       1.0     0.249081     0.833333     0.406786    Uiso  ? Si
   Si22       1.0     0.749081     0.166667     0.406786    Uiso  ? Si
   Si23       1.0     0.749081     0.500000     0.406786    Uiso  ? Si
   Si24       1.0     0.749081     0.833333     0.406786    Uiso  ? Si
   Si25       1.0     0.132321     0.166667     0.440905    Uiso  ? Si
   Si26       1.0     0.132321     0.500000     0.440905    Uiso  ? Si
   Si27       1.0     0.132321     0.833333     0.440905    Uiso  ? Si
   Si28       1.0     0.632321     0.166667     0.440905    Uiso  ? Si
   Si29       1.0     0.632321     0.500000     0.440905    Uiso  ? Si
   Si30       1.0     0.632321     0.833333     0.440905    Uiso  ? Si
   Si31       1.0     0.368174     0.166667     0.441946    Uiso  ? Si
   Si32       1.0     0.368174     0.500000     0.441946    Uiso  ? Si
   Si33       1.0     0.368174     0.833333     0.441946    Uiso  ? Si
   Si34       1.0     0.868174     0.166667     0.441946    Uiso  ? Si
   Si35       1.0     0.868174     0.500000     0.441946    Uiso  ? Si
   Si36       1.0     0.868174     0.833333     0.441946    Uiso  ? Si
   Si37       1.0     0.153547     0.000000     0.471870    Uiso  ? Si
   Si38       1.0     0.153547     0.333333     0.471870    Uiso  ? Si
   Si39       1.0     0.153547     0.666667     0.471870    Uiso  ? Si
   Si40       1.0     0.653547     0.000000     0.471870    Uiso  ? Si
   Si41       1.0     0.653547     0.333333     0.471870    Uiso  ? Si
   Si42       1.0     0.653547     0.666667     0.471870    Uiso  ? Si
   Si43       1.0     0.296442     0.000000     0.457438    Uiso  ? Si
   Si44       1.0     0.296442     0.333333     0.457438    Uiso  ? Si
   Si45       1.0     0.296442     0.666667     0.457438    Uiso  ? Si
   Si46       1.0     0.796442     0.000000     0.457438    Uiso  ? Si
   Si47       1.0     0.796442     0.333333     0.457438    Uiso  ? Si
   Si48       1.0     0.796442     0.666667     0.457438    Uiso  ? Si
   Si49       1.0     0.078557     0.000000     0.271726    Uiso  ? Si
   Si50       1.0     0.078557     0.333333     0.271726    Uiso  ? Si
   Si51       1.0     0.078557     0.666667     0.271726    Uiso  ? Si
   Si52       1.0     0.578557     0.000000     0.271726    Uiso  ? Si
   Si53       1.0     0.578557     0.333333     0.271726    Uiso  ? Si
   Si54       1.0     0.578557     0.666667     0.271726    Uiso  ? Si
   Si55       1.0     0.221453     0.000000     0.257294    Uiso  ? Si
   Si56       1.0     0.221453     0.333333     0.257294    Uiso  ? Si
   Si57       1.0     0.221453     0.666667     0.257294    Uiso  ? Si
   Si58       1.0     0.721453     0.000000     0.257294    Uiso  ? Si
   Si59       1.0     0.721453     0.333333     0.257294    Uiso  ? Si
   Si60       1.0     0.721453     0.666667     0.257294    Uiso  ? Si
   Si61       1.0     0.006825     0.166667     0.287218    Uiso  ? Si
   Si62       1.0     0.006825     0.500000     0.287218    Uiso  ? Si
   Si63       1.0     0.006825     0.833333     0.287218    Uiso  ? Si
   Si64       1.0     0.506825     0.166667     0.287218    Uiso  ? Si
   Si65       1.0     0.506825     0.500000     0.287218    Uiso  ? Si
   Si66       1.0     0.506825     0.833333     0.287218    Uiso  ? Si
   Si67       1.0     0.242678     0.166667     0.288259    Uiso  ? Si
   Si68       1.0     0.242678     0.500000     0.288259    Uiso  ? Si
   Si69       1.0     0.242678     0.833333     0.288259    Uiso  ? Si
   Si70       1.0     0.742678     0.166667     0.288259    Uiso  ? Si
   Si71       1.0     0.742678     0.500000     0.288259    Uiso  ? Si
   Si72       1.0     0.742678     0.833333     0.288259    Uiso  ? Si
   Si73       1.0     0.125919     0.166667     0.322378    Uiso  ? Si
   Si74       1.0     0.125919     0.500000     0.322378    Uiso  ? Si
   Si75       1.0     0.125919     0.833333     0.322378    Uiso  ? Si
   Si76       1.0     0.625919     0.166667     0.322378    Uiso  ? Si
   Si77       1.0     0.625919     0.500000     0.322378    Uiso  ? Si
   Si78       1.0     0.625919     0.833333     0.322378    Uiso  ? Si
   Si79       1.0     0.376287     0.166667     0.315681    Uiso  ? Si
   Si80       1.0     0.376287     0.500000     0.315681    Uiso  ? Si
   Si81       1.0     0.376287     0.833333     0.315681    Uiso  ? Si
   Si82       1.0     0.876287     0.166667     0.315681    Uiso  ? Si
   Si83       1.0     0.876287     0.500000     0.315681    Uiso  ? Si
   Si84       1.0     0.876287     0.833333     0.315681    Uiso  ? Si
   Si85       1.0     0.120843     0.000000     0.352145    Uiso  ? Si
   Si86       1.0     0.120843     0.333333     0.352145    Uiso  ? Si
   Si87       1.0     0.120843     0.666667     0.352145    Uiso  ? Si
   Si88       1.0     0.620843     0.000000     0.352145    Uiso  ? Si
   Si89       1.0     0.620843     0.333333     0.352145    Uiso  ? Si
   Si90       1.0     0.620843     0.666667     0.352145    Uiso  ? Si
   Si91       1.0     0.379396     0.000000     0.346786    Uiso  ? Si
   Si92       1.0     0.379396     0.333333     0.346786    Uiso  ? Si
   Si93       1.0     0.379396     0.666667     0.346786    Uiso  ? Si
   Si94       1.0     0.879396     0.000000     0.346786    Uiso  ? Si
   Si95       1.0     0.879396     0.333333     0.346786    Uiso  ? Si
   Si96       1.0     0.879396     0.666667     0.346786    Uiso  ? Si
   H1         1.0     0.129758     0.000479     0.502347    Uiso  ? H
   H2         1.0     0.129758     0.333812     0.502347    Uiso  ? H
   H3         1.0     0.129758     0.667145     0.502347    Uiso  ? H
   H4         1.0     0.629758     0.000479     0.502347    Uiso  ? H
   H5         1.0     0.629758     0.333812     0.502347    Uiso  ? H
   H6         1.0     0.629758     0.667145     0.502347    Uiso  ? H
   H7         1.0     0.343989     0.290449     0.482064    Uiso  ? H
   H8         1.0     0.343989     0.623782     0.482064    Uiso  ? H
   H9         1.0     0.343989     0.957116     0.482064    Uiso  ? H
   H10        1.0     0.843989     0.290449     0.482064    Uiso  ? H
   H11        1.0     0.843989     0.623782     0.482064    Uiso  ? H
   H12        1.0     0.843989     0.957116     0.482064    Uiso  ? H
   H13        1.0     0.035861     0.308661     0.244525    Uiso  ? H
   H14        1.0     0.035861     0.641994     0.244525    Uiso  ? H
   H15        1.0     0.035861     0.975328     0.244525    Uiso  ? H
   H16        1.0     0.535861     0.308661     0.244525    Uiso  ? H
   H17        1.0     0.535861     0.641994     0.244525    Uiso  ? H
   H18        1.0     0.535861     0.975328     0.244525    Uiso  ? H
   H19        1.0     0.234818     0.019888     0.226498    Uiso  ? H
   H20        1.0     0.234818     0.353221     0.226498    Uiso  ? H
   H21        1.0     0.234818     0.686555     0.226498    Uiso  ? H
   H22        1.0     0.734818     0.019888     0.226498    Uiso  ? H
   H23        1.0     0.734818     0.353221     0.226498    Uiso  ? H
   H24        1.0     0.734818     0.686555     0.226498    Uiso  ? H
