
#======================================================================
# CRYSTAL DATA
#----------------------------------------------------------------------
data_VESTA_phase_1

_chemical_name_common                  'Si16'
_cell_length_a                         7.733949
_cell_length_b                         3.866975
_cell_length_c                         45.000000
_cell_angle_alpha                      90.000000
_cell_angle_beta                       90.000000
_cell_angle_gamma                      90.000000
_cell_volume                           1345.814325
_space_group_name_H-M_alt              'P 1'
_space_group_IT_number                 1

loop_
_space_group_symop_operation_xyz
   'x, y, z'

loop_
   _atom_site_label
   _atom_site_occupancy
   _atom_site_fract_x
   _atom_site_fract_y
   _atom_site_fract_z
   _atom_site_adp_type
   _atom_site_U_iso_or_equiv
   _atom_site_type_symbol
   Si1        1.0     0.991208     0.000000     0.382378    Uiso  ? Si
   Si2        1.0     0.508313     0.000000     0.377018    Uiso  ? Si
   Si3        1.0     0.997425     0.500000     0.413482    Uiso  ? Si
   Si4        1.0     0.498162     0.500000     0.406786    Uiso  ? Si
   Si5        1.0     0.264643     0.500000     0.440905    Uiso  ? Si
   Si6        1.0     0.736349     0.500000     0.441946    Uiso  ? Si
   Si7        1.0     0.307094     0.000000     0.471870    Uiso  ? Si
   Si8        1.0     0.592885     0.000000     0.457438    Uiso  ? Si
   Si9        1.0     0.157115     0.000000     0.271726    Uiso  ? Si
   Si10       1.0     0.442906     0.000000     0.257294    Uiso  ? Si
   Si11       1.0     0.013651     0.500000     0.287218    Uiso  ? Si
   Si12       1.0     0.485357     0.500000     0.288259    Uiso  ? Si
   Si13       1.0     0.251838     0.500000     0.322378    Uiso  ? Si
   Si14       1.0     0.752575     0.500000     0.315681    Uiso  ? Si
   Si15       1.0     0.241687     0.000000     0.352145    Uiso  ? Si
   Si16       1.0     0.758792     0.000000     0.346786    Uiso  ? Si
